/*--------------------------------*- C++ -*----------------------------------*\
| =========                 |                                                 |
| \\      /  F ield         | OpenFOAM: The Open Source CFD Toolbox           |
|  \\    /   O peration     | Version:  5.0                                   |
|   \\  /    A nd           | Web:      www.OpenFOAM.org                      |
|    \\/     M anipulation  |                                                 |
\*---------------------------------------------------------------------------*/
FoamFile
{
    version     2.0;
    format      ascii;
    class       polyBoundaryMesh;
    location    "constant/polyMesh";
    object      boundary;
}
// * * * * * * * * * * * * * * * * * * * * * * * * * * * * * * * * * * * * * //

13
(
    Wall_Aorta
    {
        type            wall;
        inGroups        1(wall);
        nFaces          15036;
        startFace       101002;
    }
    Cap_LAD_D1
    {
        type            patch;
        nFaces          0;
        startFace       116038;
    }
    Cap_LAD_D4
    {
        type            patch;
        nFaces          44;
        startFace       116038;
    }
    Cap_LAD_LAD3
    {
        type            patch;
        nFaces          0;
        startFace       116082;
    }
    Cap_LAD_RI
    {
        type            patch;
        nFaces          237;
        startFace       116082;
    }
    Cap_LCX_LCX1
    {
        type            patch;
        nFaces          207;
        startFace       116319;
    }
    Cap_RCA_AM
    {
        type            patch;
        nFaces          0;
        startFace       116526;
    }
    Cap_RCA_RPDA1
    {
        type            patch;
        nFaces          0;
        startFace       116526;
    }
    Cap_RCA_RPLB2
    {
        type            patch;
        nFaces          0;
        startFace       116526;
    }
    Cap_Aorta_Inlet
    {
        type            patch;
        nFaces          0;
        startFace       116526;
    }
    Cap_Aorta_Outlet
    {
        type            patch;
        nFaces          0;
        startFace       116526;
    }
    procBoundary2to1
    {
        type            processor;
        inGroups        1(processor);
        nFaces          183;
        startFace       116526;
        matchTolerance  0.0001;
        transform       unknown;
        myProcNo        2;
        neighbProcNo    1;
    }
    procBoundary2to3
    {
        type            processor;
        inGroups        1(processor);
        nFaces          77;
        startFace       116709;
        matchTolerance  0.0001;
        transform       unknown;
        myProcNo        2;
        neighbProcNo    3;
    }
)

// ************************************************************************* //
