/*--------------------------------*- C++ -*----------------------------------*\
| =========                 |                                                 |
| \\      /  F ield         | OpenFOAM: The Open Source CFD Toolbox           |
|  \\    /   O peration     | Version:  5.0                                   |
|   \\  /    A nd           | Web:      www.OpenFOAM.org                      |
|    \\/     M anipulation  |                                                 |
\*---------------------------------------------------------------------------*/
FoamFile
{
    version     2.0;
    format      ascii;
    class       polyBoundaryMesh;
    location    "constant/polyMesh";
    object      boundary;
}
// * * * * * * * * * * * * * * * * * * * * * * * * * * * * * * * * * * * * * //

15
(
    Wall_Aorta
    {
        type            wall;
        inGroups        1(wall);
        nFaces          7045;
        startFace       105314;
    }
    Cap_LAD_D1
    {
        type            patch;
        nFaces          0;
        startFace       112359;
    }
    Cap_LAD_D4
    {
        type            patch;
        nFaces          0;
        startFace       112359;
    }
    Cap_LAD_LAD3
    {
        type            patch;
        nFaces          0;
        startFace       112359;
    }
    Cap_LAD_RI
    {
        type            patch;
        nFaces          0;
        startFace       112359;
    }
    Cap_LCX_LCX1
    {
        type            patch;
        nFaces          0;
        startFace       112359;
    }
    Cap_RCA_AM
    {
        type            patch;
        nFaces          0;
        startFace       112359;
    }
    Cap_RCA_RPDA1
    {
        type            patch;
        nFaces          0;
        startFace       112359;
    }
    Cap_RCA_RPLB2
    {
        type            patch;
        nFaces          0;
        startFace       112359;
    }
    Cap_Aorta_Inlet
    {
        type            patch;
        nFaces          2377;
        startFace       112359;
    }
    Cap_Aorta_Outlet
    {
        type            patch;
        nFaces          0;
        startFace       114736;
    }
    procBoundary0to1
    {
        type            processor;
        inGroups        1(processor);
        nFaces          1325;
        startFace       114736;
        matchTolerance  0.0001;
        transform       unknown;
        myProcNo        0;
        neighbProcNo    1;
    }
    procBoundary0to3
    {
        type            processor;
        inGroups        1(processor);
        nFaces          151;
        startFace       116061;
        matchTolerance  0.0001;
        transform       unknown;
        myProcNo        0;
        neighbProcNo    3;
    }
    procBoundary0to4
    {
        type            processor;
        inGroups        1(processor);
        nFaces          36;
        startFace       116212;
        matchTolerance  0.0001;
        transform       unknown;
        myProcNo        0;
        neighbProcNo    4;
    }
    procBoundary0to5
    {
        type            processor;
        inGroups        1(processor);
        nFaces          994;
        startFace       116248;
        matchTolerance  0.0001;
        transform       unknown;
        myProcNo        0;
        neighbProcNo    5;
    }
)

// ************************************************************************* //
