/*--------------------------------*- C++ -*----------------------------------*\
| =========                 |                                                 |
| \\      /  F ield         | OpenFOAM: The Open Source CFD Toolbox           |
|  \\    /   O peration     | Version:  5.0                                   |
|   \\  /    A nd           | Web:      www.OpenFOAM.org                      |
|    \\/     M anipulation  |                                                 |
\*---------------------------------------------------------------------------*/
FoamFile
{
    version     2.0;
    format      ascii;
    class       dictionary;
    location    "system";
    object      changeDictionaryDict;
}
// * * * * * * * * * * * * * * * * * * * * * * * * * * * * * * * * * * * * * //

boundary
{
}

UShoot
{
    internalField   uniform ( 0 0 0 );
    boundaryField
    {
        Cap_LAD_D1
        {
            type            updateFlowRateOutletVelocityMixture;
            volumetricFlowRate 1.11503e-07;
            value           uniform ( 0 0 0 );
            refValue        uniform ( 0 0 0 );
            refGradient     uniform ( 0 0 0 );
            valueFraction   uniform 1;
        }
        Cap_LAD_D4
        {
            type            updateFlowRateOutletVelocityMixture;
            volumetricFlowRate 7.3694e-09;
            value           uniform ( 0 0 0 );
            refValue        uniform ( 0 0 0 );
            refGradient     uniform ( 0 0 0 );
            valueFraction   uniform 1;
        }
        Cap_LAD_LAD3
        {
            type            updateFlowRateOutletVelocityMixture;
            volumetricFlowRate 1.70506e-07;
            value           uniform ( 0 0 0 );
            refValue        uniform ( 0 0 0 );
            refGradient     uniform ( 0 0 0 );
            valueFraction   uniform 1;
        }
        Cap_LAD_RI
        {
            type            updateFlowRateOutletVelocityMixture;
            volumetricFlowRate 1.76209e-07;
            value           uniform ( 0 0 0 );
            refValue        uniform ( 0 0 0 );
            refGradient     uniform ( 0 0 0 );
            valueFraction   uniform 1;
        }
        Cap_LCX_LCX1
        {
            type            updateFlowRateOutletVelocityMixture;
            volumetricFlowRate 1.21226e-07;
            value           uniform ( 0 0 0 );
            refValue        uniform ( 0 0 0 );
            refGradient     uniform ( 0 0 0 );
            valueFraction   uniform 1;
        }
        Cap_RCA_AM
        {
            type            updateFlowRateOutletVelocityMixture;
            volumetricFlowRate 1.16267e-07;
            value           uniform ( 0 0 0 );
            refValue        uniform ( 0 0 0 );
            refGradient     uniform ( 0 0 0 );
            valueFraction   uniform 1;
        }
        Cap_RCA_RPDA1
        {
            type            updateFlowRateOutletVelocityMixture;
            volumetricFlowRate 8.39017e-08;
            value           uniform ( 0 0 0 );
            refValue        uniform ( 0 0 0 );
            refGradient     uniform ( 0 0 0 );
            valueFraction   uniform 1;
        }
        Cap_RCA_RPLB2
        {
            type            updateFlowRateOutletVelocityMixture;
            volumetricFlowRate 1.12809e-07;
            value           uniform ( 0 0 0 );
            refValue        uniform ( 0 0 0 );
            refGradient     uniform ( 0 0 0 );
            valueFraction   uniform 1;
        }
        Cap_Aorta_Inlet
        {
            type            cardiovascularFlowRateInletVelocity;
            flowRateModel   rawDataFlowRate;
            rawDataFlowRateCoeffs
            {
                outOfBounds     repeat;
                file            "constant/scaled_pulse_flow.flow";
                scaling         constant 0.353649;
            }
            value           uniform ( 0 0 0 );
        }
        Cap_Aorta_Outlet
        {
            type            inletOutlet;
            inletValue      uniform ( 0 0 0 );
            value           uniform ( 0 0 0 );
        }
        Wall_Aorta
        {
            type            fixedValue;
            value           uniform ( 0 0 0 );
        }
    }
}

pShoot
{
    internalField   uniform 8000;
    boundaryField
    {
        Cap_LAD_D1
        {
            type            zeroGradient;
            value           uniform 8000;
        }
        Cap_LAD_D4
        {
            type            zeroGradient;
            value           uniform 8000;
        }
        Cap_LAD_LAD3
        {
            type            zeroGradient;
            value           uniform 8000;
        }
        Cap_LAD_RI
        {
            type            zeroGradient;
            value           uniform 8000;
        }
        Cap_LCX_LCX1
        {
            type            zeroGradient;
            value           uniform 8000;
        }
        Cap_RCA_AM
        {
            type            zeroGradient;
            value           uniform 8000;
        }
        Cap_RCA_RPDA1
        {
            type            zeroGradient;
            value           uniform 8000;
        }
        Cap_RCA_RPLB2
        {
            type            zeroGradient;
            value           uniform 8000;
        }
        Cap_Aorta_Inlet
        {
            type            zeroGradient;
            value           uniform 8000;
        }
        Cap_Aorta_Outlet
        {
            type            bloodFlowOutletPressure;
            duration        1e-30;
            modelName       WindKessel;
            cycle           on;
            period          1;
            WindKesselCoeffs
            {
                elements        threeElements;
                threeElementsCoeffs
                {
                    flowRateModel   realTimeFlowRate;
                    realTimeFlowRateCoeffs
                    {
                        scaling         constant 1;
                    }
                    Rd              4.24763e+08;
                    Rp              4.20096e+07;
                    C               1e-09;
                    nSteps          1000;
                    solver          RKF45;
                }
            }
            value           uniform 8000;
            refValue        uniform 8000;
            refGradient     uniform 0;
            valueFraction   uniform 1;
            Itarget         -9999;
            skip            1;
        }
        Wall_Aorta
        {
            type            zeroGradient;
            value           uniform 8000;
        }
    }
}

URest
{
    internalField   uniform ( 0 0 0 );
    boundaryField
    {
        Cap_LAD_D1
        {
            type            flowRateOutletVelocityMixture;
            volumetricFlowRate 1.11503e-07;
            value           uniform ( 0 0 0 );
            refValue        uniform ( 0 0 0 );
            refGradient     uniform ( 0 0 0 );
            valueFraction   uniform 1;
        }
        Cap_LAD_D4
        {
            type            flowRateOutletVelocityMixture;
            volumetricFlowRate 7.3694e-09;
            value           uniform ( 0 0 0 );
            refValue        uniform ( 0 0 0 );
            refGradient     uniform ( 0 0 0 );
            valueFraction   uniform 1;
        }
        Cap_LAD_LAD3
        {
            type            flowRateOutletVelocityMixture;
            volumetricFlowRate 1.70506e-07;
            value           uniform ( 0 0 0 );
            refValue        uniform ( 0 0 0 );
            refGradient     uniform ( 0 0 0 );
            valueFraction   uniform 1;
        }
        Cap_LAD_RI
        {
            type            flowRateOutletVelocityMixture;
            volumetricFlowRate 1.76209e-07;
            value           uniform ( 0 0 0 );
            refValue        uniform ( 0 0 0 );
            refGradient     uniform ( 0 0 0 );
            valueFraction   uniform 1;
        }
        Cap_LCX_LCX1
        {
            type            flowRateOutletVelocityMixture;
            volumetricFlowRate 1.21226e-07;
            value           uniform ( 0 0 0 );
            refValue        uniform ( 0 0 0 );
            refGradient     uniform ( 0 0 0 );
            valueFraction   uniform 1;
        }
        Cap_RCA_AM
        {
            type            flowRateOutletVelocityMixture;
            volumetricFlowRate 1.16267e-07;
            value           uniform ( 0 0 0 );
            refValue        uniform ( 0 0 0 );
            refGradient     uniform ( 0 0 0 );
            valueFraction   uniform 1;
        }
        Cap_RCA_RPDA1
        {
            type            flowRateOutletVelocityMixture;
            volumetricFlowRate 8.39017e-08;
            value           uniform ( 0 0 0 );
            refValue        uniform ( 0 0 0 );
            refGradient     uniform ( 0 0 0 );
            valueFraction   uniform 1;
        }
        Cap_RCA_RPLB2
        {
            type            flowRateOutletVelocityMixture;
            volumetricFlowRate 1.12809e-07;
            value           uniform ( 0 0 0 );
            refValue        uniform ( 0 0 0 );
            refGradient     uniform ( 0 0 0 );
            valueFraction   uniform 1;
        }
        Cap_Aorta_Inlet
        {
            type            cardiovascularFlowRateInletVelocity;
            flowRateModel   rawDataFlowRate;
            rawDataFlowRateCoeffs
            {
                outOfBounds     repeat;
                file            "constant/scaled_pulse_flow.flow";
                scaling         constant 0.353649;
            }
            value           uniform ( 0 0 0 );
        }
        Cap_Aorta_Outlet
        {
            type            inletOutlet;
            inletValue      uniform ( 0 0 0 );
            value           uniform ( 0 0 0 );
        }
        Wall_Aorta
        {
            type            fixedValue;
            value           uniform ( 0 0 0 );
        }
    }
}

UHyper
{
    internalField   uniform ( 0 0 0 );
    boundaryField
    {
        Cap_LAD_D1
        {
            type            flowRateOutletVelocityMixture;
            volumetricFlowRate 1.11503e-07;
            value           uniform ( 0 0 0 );
            refValue        uniform ( 0 0 0 );
            refGradient     uniform ( 0 0 0 );
            valueFraction   uniform 1;
        }
        Cap_LAD_D4
        {
            type            flowRateOutletVelocityMixture;
            volumetricFlowRate 7.3694e-09;
            value           uniform ( 0 0 0 );
            refValue        uniform ( 0 0 0 );
            refGradient     uniform ( 0 0 0 );
            valueFraction   uniform 1;
        }
        Cap_LAD_LAD3
        {
            type            flowRateOutletVelocityMixture;
            volumetricFlowRate 1.70506e-07;
            value           uniform ( 0 0 0 );
            refValue        uniform ( 0 0 0 );
            refGradient     uniform ( 0 0 0 );
            valueFraction   uniform 1;
        }
        Cap_LAD_RI
        {
            type            flowRateOutletVelocityMixture;
            volumetricFlowRate 1.76209e-07;
            value           uniform ( 0 0 0 );
            refValue        uniform ( 0 0 0 );
            refGradient     uniform ( 0 0 0 );
            valueFraction   uniform 1;
        }
        Cap_LCX_LCX1
        {
            type            flowRateOutletVelocityMixture;
            volumetricFlowRate 1.21226e-07;
            value           uniform ( 0 0 0 );
            refValue        uniform ( 0 0 0 );
            refGradient     uniform ( 0 0 0 );
            valueFraction   uniform 1;
        }
        Cap_RCA_AM
        {
            type            flowRateOutletVelocityMixture;
            volumetricFlowRate 1.16267e-07;
            value           uniform ( 0 0 0 );
            refValue        uniform ( 0 0 0 );
            refGradient     uniform ( 0 0 0 );
            valueFraction   uniform 1;
        }
        Cap_RCA_RPDA1
        {
            type            flowRateOutletVelocityMixture;
            volumetricFlowRate 8.39017e-08;
            value           uniform ( 0 0 0 );
            refValue        uniform ( 0 0 0 );
            refGradient     uniform ( 0 0 0 );
            valueFraction   uniform 1;
        }
        Cap_RCA_RPLB2
        {
            type            flowRateOutletVelocityMixture;
            volumetricFlowRate 1.12809e-07;
            value           uniform ( 0 0 0 );
            refValue        uniform ( 0 0 0 );
            refGradient     uniform ( 0 0 0 );
            valueFraction   uniform 1;
        }
        Cap_Aorta_Inlet
        {
            type            cardiovascularFlowRateInletVelocity;
            flowRateModel   rawDataFlowRate;
            rawDataFlowRateCoeffs
            {
                outOfBounds     repeat;
                file            "constant/scaled_pulse_flow.flow";
                scaling         constant 0.353649;
            }
            value           uniform ( 0 0 0 );
        }
        Cap_Aorta_Outlet
        {
            type            inletOutlet;
            inletValue      uniform ( 0 0 0 );
            value           uniform ( 0 0 0 );
        }
        Wall_Aorta
        {
            type            fixedValue;
            value           uniform ( 0 0 0 );
        }
    }
}

pRest
{
    internalField   uniform 8000;
    boundaryField
    {
        Cap_LAD_D1
        {
            type            zeroGradient;
            value           uniform 8000;
        }
        Cap_LAD_D4
        {
            type            zeroGradient;
            value           uniform 8000;
        }
        Cap_LAD_LAD3
        {
            type            zeroGradient;
            value           uniform 8000;
        }
        Cap_LAD_RI
        {
            type            zeroGradient;
            value           uniform 8000;
        }
        Cap_LCX_LCX1
        {
            type            zeroGradient;
            value           uniform 8000;
        }
        Cap_RCA_AM
        {
            type            zeroGradient;
            value           uniform 8000;
        }
        Cap_RCA_RPDA1
        {
            type            zeroGradient;
            value           uniform 8000;
        }
        Cap_RCA_RPLB2
        {
            type            zeroGradient;
            value           uniform 8000;
        }
        Cap_Aorta_Inlet
        {
            type            zeroGradient;
            value           uniform 8000;
        }
        Cap_Aorta_Outlet
        {
            type            bloodFlowOutletPressure;
            duration        1e-30;
            modelName       WindKessel;
            cycle           on;
            period          1;
            WindKesselCoeffs
            {
                elements        threeElements;
                threeElementsCoeffs
                {
                    flowRateModel   realTimeFlowRate;
                    realTimeFlowRateCoeffs
                    {
                        scaling         constant 1;
                    }
                    Rd              4.24763e+08;
                    Rp              4.20096e+07;
                    C               1e-09;
                    timeLimitC      200;
                    scaleC          100;
                    nSteps          1000;
                    solver          RKF45;
                }
            }
            value           uniform 8000;
            refValue        uniform 8000;
            refGradient     uniform 0;
            valueFraction   uniform 1;
            Itarget         -9999;
            skip            1;
        }
        Wall_Aorta
        {
            type            zeroGradient;
            value           uniform 8000;
        }
    }
}

pHyper
{
    internalField   uniform 8000;
    boundaryField
    {
        Cap_LAD_D1
        {
            type            bloodFlowOutletPressure;
            duration        1e-30;
            modelName       LumpedParameterNetwork;
            cycle           on;
            period          1;
            LumpedParameterNetworkCoeffs
            {
                Ra              2.893e+10;
                Ca              7.52481e-11;
                Ramicro         4.70113e+10;
                Rv              1.4465e+10;
                Rvmicro         0;
                Cim             6.08825e-10;
                dP0dt           10;
                dQ0dt           0;
                period          1;
                intramyocardialPressureModel rawData;
                secondOrder     on;
                rawDataCoeffs
                {
                    outOfBounds     repeat;
                    file            "constant/plv.dat";
                    scale           1.5;
                }
            }
            value           uniform 8000;
            refValue        uniform 8000;
            refGradient     uniform 0;
            valueFraction   uniform 1;
        }
        Cap_LAD_D4
        {
            type            bloodFlowOutletPressure;
            duration        1e-30;
            modelName       LumpedParameterNetwork;
            cycle           on;
            period          1;
            LumpedParameterNetworkCoeffs
            {
                Ra              4.37718e+11;
                Ca              4.97336e-12;
                Ramicro         7.11291e+11;
                Rv              2.18859e+11;
                Rvmicro         0;
                Cim             4.0239e-11;
                dP0dt           10;
                dQ0dt           0;
                period          1;
                intramyocardialPressureModel rawData;
                secondOrder     on;
                rawDataCoeffs
                {
                    outOfBounds     repeat;
                    file            "constant/plv.dat";
                    scale           1.5;
                }
            }
            value           uniform 8000;
            refValue        uniform 8000;
            refGradient     uniform 0;
            valueFraction   uniform 1;
        }
        Cap_LAD_LAD3
        {
            type            bloodFlowOutletPressure;
            duration        1e-30;
            modelName       LumpedParameterNetwork;
            cycle           on;
            period          1;
            LumpedParameterNetworkCoeffs
            {
                Ra              1.89195e+10;
                Ca              1.15062e-10;
                Ramicro         3.07442e+10;
                Rv              9.45976e+09;
                Rvmicro         0;
                Cim             9.3096e-10;
                dP0dt           10;
                dQ0dt           0;
                period          1;
                intramyocardialPressureModel rawData;
                secondOrder     on;
                rawDataCoeffs
                {
                    outOfBounds     repeat;
                    file            "constant/plv.dat";
                    scale           1.5;
                }
            }
            value           uniform 8000;
            refValue        uniform 8000;
            refGradient     uniform 0;
            valueFraction   uniform 1;
        }
        Cap_LAD_RI
        {
            type            bloodFlowOutletPressure;
            duration        1e-30;
            modelName       LumpedParameterNetwork;
            cycle           on;
            period          1;
            LumpedParameterNetworkCoeffs
            {
                Ra              1.83074e+10;
                Ca              1.18909e-10;
                Ramicro         2.97496e+10;
                Rv              9.15372e+09;
                Rvmicro         0;
                Cim             9.62086e-10;
                dP0dt           10;
                dQ0dt           0;
                period          1;
                intramyocardialPressureModel rawData;
                secondOrder     on;
                rawDataCoeffs
                {
                    outOfBounds     repeat;
                    file            "constant/plv.dat";
                    scale           1.5;
                }
            }
            value           uniform 8000;
            refValue        uniform 8000;
            refGradient     uniform 0;
            valueFraction   uniform 1;
        }
        Cap_LCX_LCX1
        {
            type            bloodFlowOutletPressure;
            duration        1e-30;
            modelName       LumpedParameterNetwork;
            cycle           on;
            period          1;
            LumpedParameterNetworkCoeffs
            {
                Ra              2.66106e+10;
                Ca              8.18066e-11;
                Ramicro         4.32423e+10;
                Rv              1.33053e+10;
                Rvmicro         0;
                Cim             6.6189e-10;
                dP0dt           10;
                dQ0dt           0;
                period          1;
                intramyocardialPressureModel rawData;
                secondOrder     on;
                rawDataCoeffs
                {
                    outOfBounds     repeat;
                    file            "constant/plv.dat";
                    scale           1.5;
                }
            }
            value           uniform 8000;
            refValue        uniform 8000;
            refGradient     uniform 0;
            valueFraction   uniform 1;
        }
        Cap_RCA_AM
        {
            type            bloodFlowOutletPressure;
            duration        1e-30;
            modelName       LumpedParameterNetwork;
            cycle           on;
            period          1;
            LumpedParameterNetworkCoeffs
            {
                Ra              2.77456e+10;
                Ca              1.0216e-10;
                Ramicro         4.50867e+10;
                Rv              1.38728e+10;
                Rvmicro         0;
                Cim             8.26564e-10;
                dP0dt           10;
                dQ0dt           0;
                period          1;
                intramyocardialPressureModel rawData;
                secondOrder     on;
                rawDataCoeffs
                {
                    outOfBounds     repeat;
                    file            "constant/plv.dat";
                    scale           0.5;
                }
            }
            value           uniform 8000;
            refValue        uniform 8000;
            refGradient     uniform 0;
            valueFraction   uniform 1;
        }
        Cap_RCA_RPDA1
        {
            type            bloodFlowOutletPressure;
            duration        1e-30;
            modelName       LumpedParameterNetwork;
            cycle           on;
            period          1;
            LumpedParameterNetworkCoeffs
            {
                Ra              3.84491e+10;
                Ca              7.37204e-11;
                Ramicro         6.24798e+10;
                Rv              1.92246e+10;
                Rvmicro         0;
                Cim             5.96465e-10;
                dP0dt           10;
                dQ0dt           0;
                period          1;
                intramyocardialPressureModel rawData;
                secondOrder     on;
                rawDataCoeffs
                {
                    outOfBounds     repeat;
                    file            "constant/plv.dat";
                    scale           0.5;
                }
            }
            value           uniform 8000;
            refValue        uniform 8000;
            refGradient     uniform 0;
            valueFraction   uniform 1;
        }
        Cap_RCA_RPLB2
        {
            type            bloodFlowOutletPressure;
            duration        1e-30;
            modelName       LumpedParameterNetwork;
            cycle           on;
            period          1;
            LumpedParameterNetworkCoeffs
            {
                Ra              2.85965e+10;
                Ca              9.912e-11;
                Ramicro         4.64693e+10;
                Rv              1.42982e+10;
                Rvmicro         0;
                Cim             8.01971e-10;
                dP0dt           10;
                dQ0dt           0;
                period          1;
                intramyocardialPressureModel rawData;
                secondOrder     on;
                rawDataCoeffs
                {
                    outOfBounds     repeat;
                    file            "constant/plv.dat";
                    scale           0.5;
                }
            }
            value           uniform 8000;
            refValue        uniform 8000;
            refGradient     uniform 0;
            valueFraction   uniform 1;
        }
        Cap_Aorta_Inlet
        {
            type            zeroGradient;
            value           uniform 8000;
        }
        Cap_Aorta_Outlet
        {
            type            bloodFlowOutletPressure;
            duration        1e-30;
            modelName       WindKessel;
            cycle           on;
            period          1;
            WindKesselCoeffs
            {
                elements        threeElements;
                threeElementsCoeffs
                {
                    flowRateModel   realTimeFlowRate;
                    realTimeFlowRateCoeffs
                    {
                        scaling         constant 1;
                    }
                    Rd              4.24763e+08;
                    Rp              4.20096e+07;
                    C               1e-09;
                    nSteps          1000;
                    solver          RKF45;
                }
            }
            value           uniform 8000;
            refValue        uniform 8000;
            refGradient     uniform 0;
            valueFraction   uniform 1;
            Itarget         -9999;
            skip            1;
        }
        Wall_Aorta
        {
            type            zeroGradient;
            value           uniform 8000;
        }
    }
}

C
{
    internalField   uniform 0;
    boundaryField
    {
        Cap_LAD_D1
        {
            type            zeroGradient;
            value           uniform 0;
        }
        Cap_LAD_D4
        {
            type            zeroGradient;
            value           uniform 0;
        }
        Cap_LAD_LAD3
        {
            type            zeroGradient;
            value           uniform 0;
        }
        Cap_LAD_RI
        {
            type            zeroGradient;
            value           uniform 0;
        }
        Cap_LCX_LCX1
        {
            type            zeroGradient;
            value           uniform 0;
        }
        Cap_RCA_AM
        {
            type            zeroGradient;
            value           uniform 0;
        }
        Cap_RCA_RPDA1
        {
            type            zeroGradient;
            value           uniform 0;
        }
        Cap_RCA_RPLB2
        {
            type            zeroGradient;
            value           uniform 0;
        }
        Cap_Aorta_Inlet
        {
            type            contrastFvPatchScalarField;
            Cmin            3.63632e-321;
            Cmax            1.23516e-322;
            ts              6.9267e-310;
            Td              6.9267e-310;
            value           uniform 0;
        }
        Cap_Aorta_Outlet
        {
            type            zeroGradient;
            value           uniform 0;
        }
        Wall_Aorta
        {
            type            zeroGradient;
            value           uniform 0;
        }
    }
}


// ************************************************************************* //
